(propopt) [matthew.barry@janus.kmn.ie@hpc-hn-101 matthew.barry]$ cd /HPC/matthew.barry/OpenFOAM-10/run/propellerCase

(propopt) [matthew.barry@janus.kmn.ie@hpc-hn-101 propellerCase]$ mkdir -p /HPC/matthew.barry/OpenFOAM-10/run/propellerCase/constant/triSurface



cp /HPC/matthew.barry/results/case_20250826_201535_420b/constant/triSurface/propeller-innerCylinder.stl \

   /HPC/matthew.barry/OpenFOAM-10/run/propellerCase/constant/triSurface/

cp: missing destination file operand after '/HPC/matthew.barry/results/case_20250826_201535_420b/constant/triSurface/propeller-innerCylinder.stl'
Try 'cp --help' for more information.
bash: /HPC/matthew.barry/OpenFOAM-10/run/propellerCase/constant/triSurface/: Is a directory
(propopt) [matthew.barry@janus.kmn.ie@hpc-hn-101 propellerCase]$

/////////////////////////////////////////////////////////////////////////////////////////////////////////



/*---------------------------------------------------------------------------*\
  =========                 |
  \\      /  F ield         | OpenFOAM: The Open Source CFD Toolbox
   \\    /   O peration     | Website:  https://openfoam.org
    \\  /    A nd           | Version:  10
     \\/     M anipulation  |
\*---------------------------------------------------------------------------*/
Build  : 10
Exec   : /HPC/matthew.barry/OpenFOAM-10/platforms/linux64GccDPInt32Opt/bin/snappyHexMesh -overwrite
Date   : Sep 03 2025
Time   : 14:11:16
Host   : "hpc-hn-101"
PID    : 3529495
I/O    : uncollated
Case   : /HPC/matthew.barry/results/case_20250903_141115_e7f1
nProcs : 1
sigFpe : Enabling floating point exception trapping (FOAM_SIGFPE).
fileModificationChecking : Monitoring run-time modified files using timeStampMaster (fileModificationSkew 10)
allowSystemOperations : Allowing user-supplied system call operations

// * * * * * * * * * * * * * * * * * * * * * * * * * * * * * * * * * * * * * //
Create time

Create mesh for time = 0

Read mesh in = 0.526032 s
Reading "snappyHexMeshDict"


Overall mesh bounding box  : (-0.12 -0.12 -0.05) (0.12 0.12 0.05)
Relative tolerance         : 1e-06
Absolute matching distance : 3.53836e-07



--> FOAM FATAL ERROR: 
Unknown region name innerCylinder for surface innerCylinder
Valid region names are 1(patch0)

    From function Foam::searchableSurfaces::searchableSurfaces(const Foam::IOobject&, const Foam::dictionary&, bool)
    in file searchableSurfaces/searchableSurfaces/searchableSurfaces.C at line 259.

FOAM exiting

[ERROR] OpenFOAM command failed: Command '['/HPC/matthew.barry/OpenFOAM-10/platforms/linux64GccDPInt32Opt/bin/snappyHexMesh', '-overwrite']' returned non-zero exit status 1.
3  	6     	[      0. 1000000.]	[      0. 1000000.]	[      0. 1000000.]

Best design found:
Pitch: 0.0611, Chord: 0.0394, Skew: -3.50
Fitness (thrust, noise): (0.0, 1000000.0)
(propopt) [matthew.barry@janus.kmn.ie@hpc-hn-101 matthew.barry]$ 


///////////////////////////////////////////////////////////////////////////////


(propopt) [matthew.barry@janus.kmn.ie@hpc-hn-101 propellerCase]$ nano /HPC/matthew.barry/OpenFOAM-10/run/propellerCase/system/surfaceFeaturesDict
(propopt) [matthew.barry@janus.kmn.ie@hpc-hn-101 propellerCase]$ surfaceFeatures
/*---------------------------------------------------------------------------*\
  =========                 |
  \\      /  F ield         | OpenFOAM: The Open Source CFD Toolbox
   \\    /   O peration     | Website:  https://openfoam.org
    \\  /    A nd           | Version:  10
     \\/     M anipulation  |
\*---------------------------------------------------------------------------*/
Build  : 10
Exec   : surfaceFeatures
Date   : Sep 03 2025
Time   : 15:27:46
Host   : "hpc-hn-101"
PID    : 3548160
I/O    : uncollated
Case   : /HPC/matthew.barry/OpenFOAM-10/run/propellerCase
nProcs : 1
sigFpe : Enabling floating point exception trapping (FOAM_SIGFPE).
fileModificationChecking : Monitoring run-time modified files using timeStampMaster (fileModificationSkew 10)
allowSystemOperations : Allowing user-supplied system call operations

// * * * * * * * * * * * * * * * * * * * * * * * * * * * * * * * * * * * * * //
Create time

Reading "surfaceFeaturesDict"



--> FOAM FATAL IO ERROR: 
wrong token type - expected string, found on line 37 the punctuation token '{'

file: /HPC/matthew.barry/OpenFOAM-10/run/propellerCase/system/surfaceFeaturesDict/surfaces at line 37.

    From function Foam::Istream& Foam::operator>>(Foam::Istream&, Foam::fileName&)
    in file primitives/strings/fileName/fileNameIO.C at line 56.

FOAM exiting

(propopt) [matthew.barry@janus.kmn.ie@hpc-hn-101 propellerCase]$ 

/////////////////////////////////////////////////////

surfaces
(
    {
        file "propeller-innerCylinder.stl";
        level 4;
        writeObj yes;
    }
    {
        file "propeller-middleCylinder.stl";
        level 3;
        writeObj yes;
    }
    {
        file "propeller-outerCylinder.stl";
        level 2;
        writeObj yes;
    }
    {
        file "propeller.stl";
        level 4;
        writeObj yes;
    }
);

////////////////////////

surfaces
(
    {
        file "propeller-innerCylinder.stl";
        level 4;
        writeObj yes;
    }
    {
        file "propeller-middleCylinder.stl";
        level 3;
        writeObj yes;
    }
    {
        file "propeller-outerCylinder.stl";
        level 2;
        writeObj yes;
    }
    {
        file "propeller.stl";
        level 4;
        writeObj yes;
    }
);

/////////////////////////////////////

(propopt) [matthew.barry@janus.kmn.ie@hpc-hn-101 propellerCase]$ nano /HPC/matthew.barry/OpenFOAM-10/run/propellerCase/system/surfaceFeaturesDict
(propopt) [matthew.barry@janus.kmn.ie@hpc-hn-101 propellerCase]$ surfaceFeatures
/*---------------------------------------------------------------------------*\
  =========                 |
  \\      /  F ield         | OpenFOAM: The Open Source CFD Toolbox
   \\    /   O peration     | Website:  https://openfoam.org
    \\  /    A nd           | Version:  10
     \\/     M anipulation  |
\*---------------------------------------------------------------------------*/
Build  : 10
Exec   : surfaceFeatures
Date   : Sep 03 2025
Time   : 15:39:07
Host   : "hpc-hn-101"
PID    : 3551258
I/O    : uncollated
Case   : /HPC/matthew.barry/OpenFOAM-10/run/propellerCase
nProcs : 1
sigFpe : Enabling floating point exception trapping (FOAM_SIGFPE).
fileModificationChecking : Monitoring run-time modified files using timeStampMaster (fileModificationSkew 10)
allowSystemOperations : Allowing user-supplied system call operations

// * * * * * * * * * * * * * * * * * * * * * * * * * * * * * * * * * * * * * //
Create time

Reading "surfaceFeaturesDict"



--> FOAM FATAL IO ERROR: 
wrong token type - expected string, found on line 34 the punctuation token '{'

file: /HPC/matthew.barry/OpenFOAM-10/run/propellerCase/system/surfaceFeaturesDict/surfaces at line 34.

    From function Foam::Istream& Foam::operator>>(Foam::Istream&, Foam::fileName&)
    in file primitives/strings/fileName/fileNameIO.C at line 56.

FOAM exiting

(propopt) [matthew.barry@janus.kmn.ie@hpc-hn-101 propellerCase]$ 

/////////////////////////////////////////////////////////////////////////

/*--------------------------------*- C++ -*----------------------------------*\
| =========                 |                                                 |
| \\      /  F ield         | OpenFOAM: The Open Source CFD Toolbox           |
|  \\    /   O peration     | Version: 10                                     |
|   \\  /    A nd           | Website:  https://openfoam.org                  |
|    \\/     M anipulation  |                                                 |
\*---------------------------------------------------------------------------*/

FoamFile
{
    version     2.0;
    format      ascii;
    class       dictionary;
    location    "system";
    object      surfaceFeaturesDict;
}

// List of surfaces to extract features from
surfaces
(
    ("propeller-innerCylinder.stl" 4)
    ("propeller-middleCylinder.stl" 3)
    ("propeller-outerCylinder.stl" 2)
    ("propeller.stl" 4)
);

// Global options
includedAngle         150;
writeObjMesh          no;
extractFromSurface    yes;

// ************************************************************************* //

(propopt) [matthew.barry@janus.kmn.ie@hpc-hn-101 propellerCase]$ nano /HPC/matthew.barry/OpenFOAM-10/run/propellerCase/system/surfaceFeaturesDict
(propopt) [matthew.barry@janus.kmn.ie@hpc-hn-101 propellerCase]$ surfaceFeatures
/*---------------------------------------------------------------------------*\
  =========                 |
  \\      /  F ield         | OpenFOAM: The Open Source CFD Toolbox
   \\    /   O peration     | Website:  https://openfoam.org
    \\  /    A nd           | Version:  10
     \\/     M anipulation  |
\*---------------------------------------------------------------------------*/
Build  : 10
Exec   : surfaceFeatures
Date   : Sep 03 2025
Time   : 15:48:27
Host   : "hpc-hn-101"
PID    : 3553731
I/O    : uncollated
Case   : /HPC/matthew.barry/OpenFOAM-10/run/propellerCase
nProcs : 1
sigFpe : Enabling floating point exception trapping (FOAM_SIGFPE).
fileModificationChecking : Monitoring run-time modified files using timeStampMaster (fileModificationSkew 10)
allowSystemOperations : Allowing user-supplied system call operations

// * * * * * * * * * * * * * * * * * * * * * * * * * * * * * * * * * * * * * //
Create time

Reading "surfaceFeaturesDict"



--> FOAM FATAL IO ERROR: 
wrong token type - expected string, found on line 22 the punctuation token '('

file: /HPC/matthew.barry/OpenFOAM-10/run/propellerCase/system/surfaceFeaturesDict/surfaces at line 22.

    From function Foam::Istream& Foam::operator>>(Foam::Istream&, Foam::fileName&)
    in file primitives/strings/fileName/fileNameIO.C at line 56.

FOAM exiting

(propopt) [matthew.barry@janus.kmn.ie@hpc-hn-101 propellerCase]$ 


///////////////////////////////////////////////


--> FOAM FATAL ERROR: 
Unknown region name innerCylinder for surface innerCylinder
Valid region names are 1(patch0)

    From function Foam::searchableSurfaces::searchableSurfaces(const Foam::IOobject&, const Foam::dictionary&, bool)
    in file searchableSurfaces/searchableSurfaces/searchableSurfaces.C at line 259.

FOAM exiting

[ERROR] OpenFOAM command failed: Command '['/HPC/matthew.barry/OpenFOAM-10/platforms/linux64GccDPInt32Opt/bin/snappyHexMesh', '-overwrite']' returned non-zero exit status 1.
3  	7     	[      0. 1000000.]	[      0. 1000000.]	[      0. 1000000.]

Best design found:
Pitch: 0.0213, Chord: 0.0192, Skew: 6.98
Fitness (thrust, noise): (0.0, 1000000.0)
(propopt) [matthew.barry@janus.kmn.ie@hpc-hn-101 propellerCase]$ nano HPC/matthew.barry/OpenFOAM-10/platforms/linux64GccDPInt32Opt/bin/snappyHexMesh
(propopt) [matthew.barry@janus.kmn.ie@hpc-hn-101 propellerCase]$ 

///////////////////////////////////////////

Create time

Create mesh for time = 0

Read mesh in = 0.52491 s
Reading "snappyHexMeshDict"



--> FOAM FATAL IO ERROR: 
keyword castellatedMeshControls is undefined in dictionary "/HPC/matthew.barry/results/case_20250903_192508_5ade/system/snappyHexMeshDict"

file: /HPC/matthew.barry/results/case_20250903_192508_5ade/system/snappyHexMeshDict from line 17 to line 90.

    From function const Foam::dictionary& Foam::dictionary::subDict(const Foam::word&) const
    in file db/dictionary/dictionary.C at line 1008.

FOAM exiting

[ERROR] OpenFOAM command failed: Command '['/HPC/matthew.barry/OpenFOAM-10/platforms/linux64GccDPInt32Opt/bin/snappyHexMesh', '-overwrite']' returned non-zero exit status 1.
3  	8     	[      0. 1000000.]	[      0. 1000000.]	[      0. 1000000.]

Best design found:
Pitch: 0.0393, Chord: 0.0390, Skew: -10.38
Fitness (thrust, noise): (0.0, 1000000.0)
(propopt) [matthew.barry@janus.kmn.ie@hpc-hn-101 matthew.barry]$ 






