(propopt) [matthew.barry@janus.kmn.ie@hpc-hn-101 matthew.barry]$ cd /HPC/matthew.barry/OpenFOAM-10/run/propellerCase

(propopt) [matthew.barry@janus.kmn.ie@hpc-hn-101 propellerCase]$ mkdir -p /HPC/matthew.barry/OpenFOAM-10/run/propellerCase/constant/triSurface



cp /HPC/matthew.barry/results/case_20250826_201535_420b/constant/triSurface/propeller-innerCylinder.stl \

   /HPC/matthew.barry/OpenFOAM-10/run/propellerCase/constant/triSurface/

cp: missing destination file operand after '/HPC/matthew.barry/results/case_20250826_201535_420b/constant/triSurface/propeller-innerCylinder.stl'
Try 'cp --help' for more information.
bash: /HPC/matthew.barry/OpenFOAM-10/run/propellerCase/constant/triSurface/: Is a directory
(propopt) [matthew.barry@janus.kmn.ie@hpc-hn-101 propellerCase]$

/////////////////////////////////////////////////////////////////////////////////////////////////////////



/*---------------------------------------------------------------------------*\
  =========                 |
  \\      /  F ield         | OpenFOAM: The Open Source CFD Toolbox
   \\    /   O peration     | Website:  https://openfoam.org
    \\  /    A nd           | Version:  10
     \\/     M anipulation  |
\*---------------------------------------------------------------------------*/
Build  : 10
Exec   : /HPC/matthew.barry/OpenFOAM-10/platforms/linux64GccDPInt32Opt/bin/snappyHexMesh -overwrite
Date   : Sep 03 2025
Time   : 14:11:16
Host   : "hpc-hn-101"
PID    : 3529495
I/O    : uncollated
Case   : /HPC/matthew.barry/results/case_20250903_141115_e7f1
nProcs : 1
sigFpe : Enabling floating point exception trapping (FOAM_SIGFPE).
fileModificationChecking : Monitoring run-time modified files using timeStampMaster (fileModificationSkew 10)
allowSystemOperations : Allowing user-supplied system call operations

// * * * * * * * * * * * * * * * * * * * * * * * * * * * * * * * * * * * * * //
Create time

Create mesh for time = 0

Read mesh in = 0.526032 s
Reading "snappyHexMeshDict"


Overall mesh bounding box  : (-0.12 -0.12 -0.05) (0.12 0.12 0.05)
Relative tolerance         : 1e-06
Absolute matching distance : 3.53836e-07



--> FOAM FATAL ERROR: 
Unknown region name innerCylinder for surface innerCylinder
Valid region names are 1(patch0)

    From function Foam::searchableSurfaces::searchableSurfaces(const Foam::IOobject&, const Foam::dictionary&, bool)
    in file searchableSurfaces/searchableSurfaces/searchableSurfaces.C at line 259.

FOAM exiting

[ERROR] OpenFOAM command failed: Command '['/HPC/matthew.barry/OpenFOAM-10/platforms/linux64GccDPInt32Opt/bin/snappyHexMesh', '-overwrite']' returned non-zero exit status 1.
3  	6     	[      0. 1000000.]	[      0. 1000000.]	[      0. 1000000.]

Best design found:
Pitch: 0.0611, Chord: 0.0394, Skew: -3.50
Fitness (thrust, noise): (0.0, 1000000.0)
(propopt) [matthew.barry@janus.kmn.ie@hpc-hn-101 matthew.barry]$ 

